# Name: ATP
# Created by ModelServer 0.9.11

# model_server_result.job_id: QaEdT7R-Z_tViaggLx9laA
# model_server_result.datetime_utc: 2024-07-13 21:17:28
# model_server_result.server_version: 0.9.11
# model_server_result.query_name: ligand
# model_server_result.source_id: pdb-bcif
# model_server_result.entry_id: 8fp5

# model_server_params.name: atom_site
# model_server_params.value: {"label_asym_id":"C","auth_seq_id":302}

# model_server_stats.io_time_ms: 4
# model_server_stats.parse_time_ms: 123
# model_server_stats.create_model_time_ms: 4
# model_server_stats.query_time_ms: 246
# model_server_stats.encode_time_ms: 0
# model_server_stats.element_count: 31

@<TRIPOS>MOLECULE
ATP
31 33 1
****
****

@<TRIPOS>ATOM
1 PG 4.052 -10.368 20.432 P.3 1 ATP 0.000
2 O1G 4.360 -10.645 19.000 O.2 1 ATP 0.000
3 O2G 3.648 -8.884 20.680 O.3 1 ATP 0.000
4 O3G 5.154 -10.776 21.411 O.3 1 ATP 0.000
5 PB 1.620 -11.136 21.945 P.3 1 ATP 0.000
6 O1B 0.962 -9.830 21.895 O.2 1 ATP 0.000
7 O2B 0.709 -12.376 21.804 O.3 1 ATP 0.000
8 O3B 2.776 -11.211 20.895 O.3 1 ATP 0.000
9 PA 2.982 -10.318 24.407 P.3 1 ATP 0.000
10 O1A 4.215 -10.828 25.038 O.2 1 ATP 0.000
11 O2A 3.252 -8.991 23.759 O.3 1 ATP 0.000
12 O3A 2.432 -11.295 23.298 O.3 1 ATP 0.000
13 O5' 1.744 -10.213 25.373 O.3 1 ATP 0.000
14 C5' 1.404 -11.284 26.276 C.3 1 ATP 0.000
15 C4' -0.012 -11.029 26.724 C.3 1 ATP 0.000
16 O4' -0.041 -9.850 27.563 O.3 1 ATP 0.000
17 C3' -0.991 -10.774 25.576 C.3 1 ATP 0.000
18 O3' -2.284 -11.314 25.812 O.3 1 ATP 0.000
19 C2' -1.076 -9.249 25.541 C.3 1 ATP 0.000
20 O2' -2.298 -8.788 24.975 O.3 1 ATP 0.000
21 C1' -0.941 -8.905 27.026 C.3 1 ATP 0.000
22 N9 -0.415 -7.556 27.206 N.ar 1 ATP 0.000
23 C8 0.650 -7.009 26.539 C.ar 1 ATP 0.000
24 N7 0.856 -5.745 26.811 N.ar 1 ATP 0.000
25 C5 -0.147 -5.436 27.721 C.ar 1 ATP 0.000
26 C6 -0.479 -4.247 28.399 C.ar 1 ATP 0.000
27 N6 0.183 -3.100 28.241 N.pl3 1 ATP 0.000
28 N1 -1.553 -4.271 29.231 N.ar 1 ATP 0.000
29 C2 -2.235 -5.412 29.361 C.ar 1 ATP 0.000
30 N3 -2.010 -6.593 28.775 N.ar 1 ATP 0.000
31 C4 -0.951 -6.538 27.959 C.ar 1 ATP 0.000
@<TRIPOS>BOND
1 1 2 2
2 1 3 1
3 1 4 1
4 1 8 1
5 5 6 2
6 5 7 1
7 5 8 1
8 5 12 1
9 9 10 2
10 9 11 1
11 9 12 1
12 9 13 1
13 13 14 1
14 14 15 1
15 15 16 1
16 15 17 1
17 16 21 1
18 17 18 1
19 17 19 1
20 19 20 1
21 19 21 1
22 21 22 1
23 22 23 ar
24 22 31 ar
25 23 24 ar
26 24 25 ar
27 25 26 ar
28 25 31 ar
29 26 27 1
30 26 28 ar
31 28 29 ar
32 29 30 ar
33 30 31 ar
@<TRIPOS>SUBSTRUCTURE
1 ATP 1
