@<TRIPOS>MOLECULE
86Y
 34 38 0 0 0
SMALL
GASTEIGER

@<TRIPOS>ATOM
      1 C          -5.6950  -32.7500   17.6760 C.3     1  UNL1        0.0722
      2 C          -5.4180  -31.4660   16.9670 C.3     1  UNL1        0.0174
      3 C          -5.3280  -31.7070   15.4460 C.3     1  UNL1        0.0015
      4 C          -4.1510  -30.9690   17.5050 C.3     1  UNL1        0.0187
      5 C          -4.0650  -31.5690   18.8790 C.3     1  UNL1        0.0722
      6 N          -5.2580  -32.4340   18.9940 N.3     1  UNL1       -0.2696
      7 C          -4.9960  -33.6110   19.6820 C.3     1  UNL1        0.1200
      8 C          -4.9710  -33.3730   21.1710 C.3     1  UNL1        0.2226
      9 O          -3.6830  -32.8890   21.4990 O.3     1  UNL1       -0.4740
     10 C          -3.5070  -32.5180   22.8520 C.ar    1  UNL1        0.1386
     11 C          -4.4820  -33.0100   23.9090 C.ar    1  UNL1        0.0367
     12 C          -4.2980  -32.6500   25.2050 C.ar    1  UNL1        0.0026
     13 C          -2.4520  -31.7170   23.1970 C.ar    1  UNL1        0.0367
     14 C          -2.2520  -31.3150   24.6480 C.ar    1  UNL1        0.0026
     15 C          -3.1210  -31.7440   25.6120 C.ar    1  UNL1        0.0217
     16 C          -3.0020  -31.4220   26.9750 C.3     1  UNL1        0.2102
     17 O          -3.6340  -30.2520   27.2270 O.3     1  UNL1       -0.4702
     18 C          -3.1870  -29.0490   26.9390 C.ar    1  UNL1        0.1421
     19 C          -4.1100  -28.0930   26.5830 C.ar    1  UNL1        0.0789
     20 C          -3.6020  -26.7650   26.2490 C.ar    1  UNL1        0.1988
     21 O          -4.5590  -25.7830   25.9020 O.3     1  UNL1       -0.2865
     22 C          -2.3330  -26.4600   26.2680 C.ar    1  UNL1        0.0422
     23 C          -1.3560  -27.5230   26.6310 C.ar    1  UNL1        0.0060
     24 C          -1.8300  -28.7820   26.9380 C.ar    1  UNL1        0.0301
     25 C          -0.9370  -29.7790   27.2800 C.2     1  UNL1       -0.0192
     26 C           0.5630  -29.4790   27.5150 C.3     1  UNL1        0.0309
     27 C          -1.4420  -31.1210   27.2830 C.2     1  UNL1        0.0176
     28 C          -0.5950  -32.3930   27.2390 C.ar    1  UNL1       -0.0004
     29 C           0.4530  -32.5370   26.3970 C.ar    1  UNL1        0.0031
     30 C           1.2310  -33.8350   26.3650 C.ar    1  UNL1        0.0420
     31 C           0.8250  -34.8310   27.1550 C.ar    1  UNL1        0.1957
     32 O           1.4860  -36.0510   27.1580 O.3     1  UNL1       -0.2866
     33 C          -0.3670  -34.6900   28.0540 C.ar    1  UNL1        0.0420
     34 C          -1.0540  -33.5340   28.0940 C.ar    1  UNL1        0.0031
@<TRIPOS>BOND
     1     1     2    1
     2     1     6    1
     3     2     3    1
     4     2     4    1
     5     4     5    1
     6     5     6    1
     7     6     7    1
     8     7     8    1
     9     8     9    1
    10     9    10    1
    11    10    13   ar
    12    10    11   ar
    13    11    12   ar
    14    12    15   ar
    15    13    14   ar
    16    14    15   ar
    17    15    16    1
    18    16    17    1
    19    16    27    1
    20    17    18    1
    21    18    19   ar
    22    18    24   ar
    23    19    20   ar
    24    20    21    1
    25    20    22   ar
    26    22    23   ar
    27    23    24   ar
    28    24    25    1
    29    25    27    2
    30    25    26    1
    31    27    28    1
    32    28    29   ar
    33    28    34   ar
    34    29    30   ar
    35    30    31   ar
    36    31    32    1
    37    31    33   ar
    38    33    34   ar
