@<TRIPOS>MOLECULE
85M
 33 37 0 0 0
SMALL
GASTEIGER

@<TRIPOS>ATOM
      1 C          -3.9380  -31.4870   19.0260 C.3     1  UNL1        0.0722
      2 C          -4.0300  -30.5730   18.1400 C.3     1  UNL1        0.0188
      3 C          -4.7920  -31.2110   17.0730 C.3     1  UNL1        0.0188
      4 C          -5.4150  -32.4630   17.7140 C.3     1  UNL1        0.0722
      5 N          -5.2720  -32.2850   18.8890 N.3     1  UNL1       -0.2696
      6 C          -5.2200  -33.3050   19.4050 C.3     1  UNL1        0.1200
      7 C          -5.3570  -33.2880   20.9510 C.3     1  UNL1        0.2226
      8 O          -4.0470  -33.1120   21.4200 O.3     1  UNL1       -0.4740
      9 C          -3.8120  -32.6760   22.7500 C.ar    1  UNL1        0.1386
     10 C          -4.5900  -33.0740   23.8390 C.ar    1  UNL1        0.0367
     11 C          -4.2890  -32.6260   25.1390 C.ar    1  UNL1        0.0023
     12 C          -2.7350  -31.8730   22.9750 C.ar    1  UNL1        0.0367
     13 C          -2.4300  -31.4410   24.2670 C.ar    1  UNL1        0.0023
     14 C          -3.2190  -31.7920   25.3760 C.ar    1  UNL1        0.0177
     15 C          -2.8960  -31.3150   26.8220 C.3     1  UNL1        0.1923
     16 O          -3.6610  -30.2180   27.2580 O.3     1  UNL1       -0.4746
     17 C          -3.1780  -28.9330   26.9840 C.ar    1  UNL1        0.1380
     18 C          -4.0650  -27.9330   26.5540 C.ar    1  UNL1        0.0786
     19 C          -3.6120  -26.6710   26.2370 C.ar    1  UNL1        0.1988
     20 O          -4.5500  -25.7250   25.8530 O.3     1  UNL1       -0.2865
     21 C          -2.2410  -26.3810   26.3480 C.ar    1  UNL1        0.0419
     22 C          -1.3430  -27.3730   26.7320 C.ar    1  UNL1        0.0020
     23 C          -1.8360  -28.6770   27.0550 C.ar    1  UNL1        0.0121
     24 C          -0.9330  -29.8210   27.5510 C.3     1  UNL1        0.0332
     25 C           0.5080  -29.5490   27.3710 C.3     1  UNL1        0.0053
     26 C          -1.3800  -31.1350   26.8950 C.3     1  UNL1        0.0708
     27 C          -0.6790  -32.4340   27.1950 C.ar    1  UNL1       -0.0181
     28 C          -0.9580  -33.2750   28.2460 C.ar    1  UNL1       -0.0009
     29 C          -0.2510  -34.4480   28.3610 C.ar    1  UNL1        0.0417
     30 C           0.6990  -34.7750   27.3890 C.ar    1  UNL1        0.1957
     31 O           1.4270  -35.9090   27.4730 O.3     1  UNL1       -0.2866
     32 C           1.0030  -33.9420   26.3270 C.ar    1  UNL1        0.0417
     33 C           0.2930  -32.7980   26.2310 C.ar    1  UNL1       -0.0009
@<TRIPOS>BOND
     1     1     2    1
     2     1     5    1
     3     2     3    1
     4     3     4    1
     5     4     5    1
     6     5     6    1
     7     6     7    1
     8     7     8    1
     9     8     9    1
    10     9    12   ar
    11     9    10   ar
    12    10    11   ar
    13    11    14   ar
    14    12    13   ar
    15    13    14   ar
    16    14    15    1
    17    15    26    1
    18    15    16    1
    19    16    17    1
    20    17    18   ar
    21    17    23   ar
    22    18    19   ar
    23    19    20    1
    24    19    21   ar
    25    21    22   ar
    26    22    23   ar
    27    23    24    1
    28    24    26    1
    29    24    25    1
    30    26    27    1
    31    27    33   ar
    32    27    28   ar
    33    28    29   ar
    34    29    30   ar
    35    30    32   ar
    36    30    31    1
    37    32    33   ar
